*SPEF "ieee 1481-1999"
*DESIGN "simproc_system"
*DATE "11:11:11 Fri 11 11, 1111"
*VENDOR "OpenRCX"
*PROGRAM "Parallel Extraction"
*VERSION "1.0"
*DESIGN_FLOW "NAME_SCOPE LOCAL" "PIN_CAP NONE"
*DIVIDER /
*DELIMITER :
*BUS_DELIMITER []
*T_UNIT 1 NS
*C_UNIT 1 PF
*R_UNIT 1 OHM
*L_UNIT 1 HENRY

*NAME_MAP
*3 addr_byte[0]
*4 addr_byte[1]
*5 addr_byte[2]
*6 addr_byte[3]
*7 addr_byte[4]
*8 addr_byte[5]
*9 addr_byte[6]
*10 addr_byte[7]
*11 clk
*12 clk_per_bit[0]
*13 clk_per_bit[1]
*14 clk_per_bit[2]
*15 clk_per_bit[3]
*16 clk_per_bit[4]
*17 clk_per_bit[5]
*18 clk_per_bit[6]
*19 clk_per_bit[7]
*20 clk_per_bit[8]
*21 clk_per_bit[9]
*22 cmd_byte[0]
*23 cmd_byte[1]
*24 cmd_byte[2]
*25 cmd_byte[3]
*26 cmd_byte[4]
*27 cmd_byte[5]
*28 cmd_byte[6]
*29 cmd_byte[7]
*30 data_byte[0]
*31 data_byte[1]
*32 data_byte[2]
*33 data_byte[3]
*34 data_byte[4]
*35 data_byte[5]
*36 data_byte[6]
*37 data_byte[7]
*38 done
*39 halt
*40 rst
*41 tx_reg[0]
*42 tx_reg[1]
*43 tx_reg[2]
*44 tx_reg[3]
*45 tx_reg[4]
*46 tx_reg[5]
*47 tx_reg[6]
*48 tx_reg[7]
*49 uart_rx
*50 uart_tx
*51 CPU1\.PC1\.pc_out\[0\]
*52 CPU1\.PC1\.pc_out\[1\]
*53 CPU1\.PC1\.pc_out\[2\]
*54 CPU1\.PC1\.pc_out\[3\]
*55 CPU1\.PC1\.pc_out\[4\]
*56 CPU1\.PC1\.pc_out\[5\]
*57 CPU1\.PC1\.pc_out\[6\]
*58 CPU1\.PC1\.pc_out\[7\]
*59 CPU1\.RF1\.rf\[0\]\[0\]
*60 CPU1\.RF1\.rf\[0\]\[1\]
*61 CPU1\.RF1\.rf\[0\]\[2\]
*62 CPU1\.RF1\.rf\[0\]\[3\]
*63 CPU1\.RF1\.rf\[0\]\[4\]
*64 CPU1\.RF1\.rf\[0\]\[5\]
*65 CPU1\.RF1\.rf\[0\]\[6\]
*66 CPU1\.RF1\.rf\[0\]\[7\]
*67 CPU1\.RF1\.rf\[1\]\[0\]
*68 CPU1\.RF1\.rf\[1\]\[1\]
*69 CPU1\.RF1\.rf\[1\]\[2\]
*70 CPU1\.RF1\.rf\[1\]\[3\]
*71 CPU1\.RF1\.rf\[1\]\[4\]
*72 CPU1\.RF1\.rf\[1\]\[5\]
*73 CPU1\.RF1\.rf\[1\]\[6\]
*74 CPU1\.RF1\.rf\[1\]\[7\]
*75 CPU1\.RF1\.rf\[2\]\[0\]
*76 CPU1\.RF1\.rf\[2\]\[1\]
*77 CPU1\.RF1\.rf\[2\]\[2\]
*78 CPU1\.RF1\.rf\[2\]\[3\]
*79 CPU1\.RF1\.rf\[2\]\[4\]
*80 CPU1\.RF1\.rf\[2\]\[5\]
*81 CPU1\.RF1\.rf\[2\]\[6\]
*82 CPU1\.RF1\.rf\[2\]\[7\]
*83 CPU1\.RF1\.rf\[3\]\[0\]
*84 CPU1\.RF1\.rf\[3\]\[1\]
*85 CPU1\.RF1\.rf\[3\]\[2\]
*86 CPU1\.RF1\.rf\[3\]\[3\]
*87 CPU1\.RF1\.rf\[3\]\[4\]
*88 CPU1\.RF1\.rf\[3\]\[5\]
*89 CPU1\.RF1\.rf\[3\]\[6\]
*90 CPU1\.RF1\.rf\[3\]\[7\]
*91 CPU1\.alu_reg_out\[0\]
*92 CPU1\.alu_reg_out\[1\]
*93 CPU1\.alu_reg_out\[2\]
*94 CPU1\.alu_reg_out\[3\]
*95 CPU1\.alu_reg_out\[4\]
*96 CPU1\.alu_reg_out\[5\]
*97 CPU1\.alu_reg_out\[6\]
*98 CPU1\.alu_reg_out\[7\]
*99 CPU1\.curr_state\[1\]
*100 CPU1\.curr_state\[2\]
*101 CPU1\.curr_state\[4\]
*102 CPU1\.curr_state\[5\]
*103 CPU1\.instr_reg_out\[0\]
*104 CPU1\.instr_reg_out\[1\]
*105 CPU1\.instr_reg_out\[2\]
*106 CPU1\.instr_reg_out\[3\]
*107 CPU1\.instr_reg_out\[4\]
*108 CPU1\.instr_reg_out\[5\]
*109 CPU1\.instr_reg_out\[6\]
*110 CPU1\.instr_reg_out\[7\]
*111 CPU1\.ir_load
*112 CPU1\.mdr_out\[0\]
*113 CPU1\.mdr_out\[1\]
*114 CPU1\.mdr_out\[2\]
*115 CPU1\.mdr_out\[3\]
*116 CPU1\.mdr_out\[4\]
*117 CPU1\.mdr_out\[5\]
*118 CPU1\.mdr_out\[6\]
*119 CPU1\.mdr_out\[7\]
*120 CPU1\.reg_a_out\[0\]
*121 CPU1\.reg_a_out\[1\]
*122 CPU1\.reg_a_out\[2\]
*123 CPU1\.reg_a_out\[3\]
*124 CPU1\.reg_a_out\[4\]
*125 CPU1\.reg_a_out\[5\]
*126 CPU1\.reg_a_out\[6\]
*127 CPU1\.reg_a_out\[7\]
*128 CPU1\.reg_b_out\[0\]
*129 CPU1\.reg_b_out\[1\]
*130 CPU1\.reg_b_out\[2\]
*131 CPU1\.reg_b_out\[3\]
*132 CPU1\.reg_b_out\[4\]
*133 CPU1\.reg_b_out\[5\]
*134 CPU1\.reg_b_out\[6\]
*135 CPU1\.reg_b_out\[7\]
*136 CPU1\.z_flag_out
*137 RAM1\.mem\[0\]\[0\]
*138 RAM1\.mem\[0\]\[1\]
*139 RAM1\.mem\[0\]\[2\]
*140 RAM1\.mem\[0\]\[3\]
*141 RAM1\.mem\[0\]\[4\]
*142 RAM1\.mem\[0\]\[5\]
*143 RAM1\.mem\[0\]\[6\]
*144 RAM1\.mem\[0\]\[7\]
*145 RAM1\.mem\[10\]\[0\]
*146 RAM1\.mem\[10\]\[1\]
*147 RAM1\.mem\[10\]\[2\]
*148 RAM1\.mem\[10\]\[3\]
*149 RAM1\.mem\[10\]\[4\]
*150 RAM1\.mem\[10\]\[5\]
*151 RAM1\.mem\[10\]\[6\]
*152 RAM1\.mem\[10\]\[7\]
*153 RAM1\.mem\[11\]\[0\]
*154 RAM1\.mem\[11\]\[1\]
*155 RAM1\.mem\[11\]\[2\]
*156 RAM1\.mem\[11\]\[3\]
*157 RAM1\.mem\[11\]\[4\]
*158 RAM1\.mem\[11\]\[5\]
*159 RAM1\.mem\[11\]\[6\]
*160 RAM1\.mem\[11\]\[7\]
*161 RAM1\.mem\[12\]\[0\]
*162 RAM1\.mem\[12\]\[1\]
*163 RAM1\.mem\[12\]\[2\]
*164 RAM1\.mem\[12\]\[3\]
*165 RAM1\.mem\[12\]\[4\]
*166 RAM1\.mem\[12\]\[5\]
*167 RAM1\.mem\[12\]\[6\]
*168 RAM1\.mem\[12\]\[7\]
*169 RAM1\.mem\[13\]\[0\]
*170 RAM1\.mem\[13\]\[1\]
*171 RAM1\.mem\[13\]\[2\]
*172 RAM1\.mem\[13\]\[3\]
*173 RAM1\.mem\[13\]\[4\]
*174 RAM1\.mem\[13\]\[5\]
*175 RAM1\.mem\[13\]\[6\]
*176 RAM1\.mem\[13\]\[7\]
*177 RAM1\.mem\[14\]\[0\]
*178 RAM1\.mem\[14\]\[1\]
*179 RAM1\.mem\[14\]\[2\]
*180 RAM1\.mem\[14\]\[3\]
*181 RAM1\.mem\[14\]\[4\]
*182 RAM1\.mem\[14\]\[5\]
*183 RAM1\.mem\[14\]\[6\]
*184 RAM1\.mem\[14\]\[7\]
*185 RAM1\.mem\[15\]\[0\]
*186 RAM1\.mem\[15\]\[1\]
*187 RAM1\.mem\[15\]\[2\]
*188 RAM1\.mem\[15\]\[3\]
*189 RAM1\.mem\[15\]\[4\]
*190 RAM1\.mem\[15\]\[5\]
*191 RAM1\.mem\[15\]\[6\]
*192 RAM1\.mem\[15\]\[7\]
*193 RAM1\.mem\[16\]\[0\]
*194 RAM1\.mem\[16\]\[1\]
*195 RAM1\.mem\[16\]\[2\]
*196 RAM1\.mem\[16\]\[3\]
*197 RAM1\.mem\[16\]\[4\]
*198 RAM1\.mem\[16\]\[5\]
*199 RAM1\.mem\[16\]\[6\]
*200 RAM1\.mem\[16\]\[7\]
*201 RAM1\.mem\[17\]\[0\]
*202 RAM1\.mem\[17\]\[1\]
*203 RAM1\.mem\[17\]\[2\]
*204 RAM1\.mem\[17\]\[3\]
*205 RAM1\.mem\[17\]\[4\]
*206 RAM1\.mem\[17\]\[5\]
*207 RAM1\.mem\[17\]\[6\]
*208 RAM1\.mem\[17\]\[7\]
*209 RAM1\.mem\[18\]\[0\]
*210 RAM1\.mem\[18\]\[1\]
*211 RAM1\.mem\[18\]\[2\]
*212 RAM1\.mem\[18\]\[3\]
*213 RAM1\.mem\[18\]\[4\]
*214 RAM1\.mem\[18\]\[5\]
*215 RAM1\.mem\[18\]\[6\]
*216 RAM1\.mem\[18\]\[7\]
*217 RAM1\.mem\[19\]\[0\]
*218 RAM1\.mem\[19\]\[1\]
*219 RAM1\.mem\[19\]\[2\]
*220 RAM1\.mem\[19\]\[3\]
*221 RAM1\.mem\[19\]\[4\]
*222 RAM1\.mem\[19\]\[5\]
*223 RAM1\.mem\[19\]\[6\]
*224 RAM1\.mem\[19\]\[7\]
*225 RAM1\.mem\[1\]\[0\]
*226 RAM1\.mem\[1\]\[1\]
*227 RAM1\.mem\[1\]\[2\]
*228 RAM1\.mem\[1\]\[3\]
*229 RAM1\.mem\[1\]\[4\]
*230 RAM1\.mem\[1\]\[5\]
*231 RAM1\.mem\[1\]\[6\]
*232 RAM1\.mem\[1\]\[7\]
*233 RAM1\.mem\[20\]\[0\]
*234 RAM1\.mem\[20\]\[1\]
*235 RAM1\.mem\[20\]\[2\]
*236 RAM1\.mem\[20\]\[3\]
*237 RAM1\.mem\[20\]\[4\]
*238 RAM1\.mem\[20\]\[5\]
*239 RAM1\.mem\[20\]\[6\]
*240 RAM1\.mem\[20\]\[7\]
*241 RAM1\.mem\[21\]\[0\]
*242 RAM1\.mem\[21\]\[1\]
*243 RAM1\.mem\[21\]\[2\]
*244 RAM1\.mem\[21\]\[3\]
*245 RAM1\.mem\[21\]\[4\]
*246 RAM1\.mem\[21\]\[5\]
*247 RAM1\.mem\[21\]\[6\]
*248 RAM1\.mem\[21\]\[7\]
*249 RAM1\.mem\[22\]\[0\]
*250 RAM1\.mem\[22\]\[1\]
*251 RAM1\.mem\[22\]\[2\]
*252 RAM1\.mem\[22\]\[3\]
*253 RAM1\.mem\[22\]\[4\]
*254 RAM1\.mem\[22\]\[5\]
*255 RAM1\.mem\[22\]\[6\]
*256 RAM1\.mem\[22\]\[7\]
*257 RAM1\.mem\[23\]\[0\]
*258 RAM1\.mem\[23\]\[1\]
*259 RAM1\.mem\[23\]\[2\]
*260 RAM1\.mem\[23\]\[3\]
*261 RAM1\.mem\[23\]\[4\]
*262 RAM1\.mem\[23\]\[5\]
*263 RAM1\.mem\[23\]\[6\]
*264 RAM1\.mem\[23\]\[7\]
*265 RAM1\.mem\[2\]\[0\]
*266 RAM1\.mem\[2\]\[1\]
*267 RAM1\.mem\[2\]\[2\]
*268 RAM1\.mem\[2\]\[3\]
*269 RAM1\.mem\[2\]\[4\]
*270 RAM1\.mem\[2\]\[5\]
*271 RAM1\.mem\[2\]\[6\]
*272 RAM1\.mem\[2\]\[7\]
*273 RAM1\.mem\[3\]\[0\]
*274 RAM1\.mem\[3\]\[1\]
*275 RAM1\.mem\[3\]\[2\]
*276 RAM1\.mem\[3\]\[3\]
*277 RAM1\.mem\[3\]\[4\]
*278 RAM1\.mem\[3\]\[5\]
*279 RAM1\.mem\[3\]\[6\]
*280 RAM1\.mem\[3\]\[7\]
*281 RAM1\.mem\[4\]\[0\]
*282 RAM1\.mem\[4\]\[1\]
*283 RAM1\.mem\[4\]\[2\]
*284 RAM1\.mem\[4\]\[3\]
*285 RAM1\.mem\[4\]\[4\]
*286 RAM1\.mem\[4\]\[5\]
*287 RAM1\.mem\[4\]\[6\]
*288 RAM1\.mem\[4\]\[7\]
*289 RAM1\.mem\[5\]\[0\]
*290 RAM1\.mem\[5\]\[1\]
*291 RAM1\.mem\[5\]\[2\]
*292 RAM1\.mem\[5\]\[3\]
*293 RAM1\.mem\[5\]\[4\]
*294 RAM1\.mem\[5\]\[5\]
*295 RAM1\.mem\[5\]\[6\]
*296 RAM1\.mem\[5\]\[7\]
*297 RAM1\.mem\[6\]\[0\]
*298 RAM1\.mem\[6\]\[1\]
*299 RAM1\.mem\[6\]\[2\]
*300 RAM1\.mem\[6\]\[3\]
*301 RAM1\.mem\[6\]\[4\]
*302 RAM1\.mem\[6\]\[5\]
*303 RAM1\.mem\[6\]\[6\]
*304 RAM1\.mem\[6\]\[7\]
*305 RAM1\.mem\[7\]\[0\]
*306 RAM1\.mem\[7\]\[1\]
*307 RAM1\.mem\[7\]\[2\]
*308 RAM1\.mem\[7\]\[3\]
*309 RAM1\.mem\[7\]\[4\]
*310 RAM1\.mem\[7\]\[5\]
*311 RAM1\.mem\[7\]\[6\]
*312 RAM1\.mem\[7\]\[7\]
*313 RAM1\.mem\[8\]\[0\]
*314 RAM1\.mem\[8\]\[1\]
*315 RAM1\.mem\[8\]\[2\]
*316 RAM1\.mem\[8\]\[3\]
*317 RAM1\.mem\[8\]\[4\]
*318 RAM1\.mem\[8\]\[5\]
*319 RAM1\.mem\[8\]\[6\]
*320 RAM1\.mem\[8\]\[7\]
*321 RAM1\.mem\[9\]\[0\]
*322 RAM1\.mem\[9\]\[1\]
*323 RAM1\.mem\[9\]\[2\]
*324 RAM1\.mem\[9\]\[3\]
*325 RAM1\.mem\[9\]\[4\]
*326 RAM1\.mem\[9\]\[5\]
*327 RAM1\.mem\[9\]\[6\]
*328 RAM1\.mem\[9\]\[7\]
*329 UART1\.RX_dataOut\[0\]
*330 UART1\.RX_dataOut\[1\]
*331 UART1\.RX_dataOut\[2\]
*332 UART1\.RX_dataOut\[3\]
*333 UART1\.RX_dataOut\[4\]
*334 UART1\.RX_dataOut\[5\]
*335 UART1\.RX_dataOut\[6\]
*336 UART1\.RX_dataOut\[7\]
*337 UART1\.RX_done
*338 UART1\.TX_done
*339 UART1\.TX_en
*340 UART1\.UART_RX1\.clkCount\[0\]
*341 UART1\.UART_RX1\.clkCount\[1\]
*342 UART1\.UART_RX1\.clkCount\[2\]
*343 UART1\.UART_RX1\.clkCount\[3\]
*344 UART1\.UART_RX1\.clkCount\[4\]
*345 UART1\.UART_RX1\.clkCount\[5\]
*346 UART1\.UART_RX1\.clkCount\[6\]
*347 UART1\.UART_RX1\.clkCount\[7\]
*348 UART1\.UART_RX1\.clkCount\[8\]
*349 UART1\.UART_RX1\.clkCount\[9\]
*350 UART1\.UART_RX1\.dataOut\[0\]
*351 UART1\.UART_RX1\.dataOut\[1\]
*352 UART1\.UART_RX1\.dataOut\[2\]
*353 UART1\.UART_RX1\.dataOut\[3\]
*354 UART1\.UART_RX1\.dataOut\[4\]
*355 UART1\.UART_RX1\.dataOut\[5\]
*356 UART1\.UART_RX1\.dataOut\[6\]
*357 UART1\.UART_RX1\.dataOut\[7\]
*358 UART1\.UART_RX1\.index\[0\]
*359 UART1\.UART_RX1\.index\[1\]
*360 UART1\.UART_RX1\.index\[2\]
*361 UART1\.UART_RX1\.index\[3\]
*362 UART1\.UART_RX1\.regIn
*363 UART1\.UART_RX1\.regInMeta
*364 UART1\.UART_RX1\.state\[0\]
*365 UART1\.UART_RX1\.state\[1\]
*366 UART1\.UART_RX1\.state\[2\]
*367 UART1\.UART_RX1\.state\[3\]
*368 UART1\.UART_TX1\.clkCount\[0\]
*369 UART1\.UART_TX1\.clkCount\[1\]
*370 UART1\.UART_TX1\.clkCount\[2\]
*371 UART1\.UART_TX1\.clkCount\[3\]
*372 UART1\.UART_TX1\.clkCount\[4\]
*373 UART1\.UART_TX1\.clkCount\[5\]
*374 UART1\.UART_TX1\.clkCount\[6\]
*375 UART1\.UART_TX1\.clkCount\[7\]
*376 UART1\.UART_TX1\.clkCount\[8\]
*377 UART1\.UART_TX1\.clkCount\[9\]
*378 UART1\.UART_TX1\.index\[0\]
*379 UART1\.UART_TX1\.index\[1\]
*380 UART1\.UART_TX1\.index\[2\]
*381 UART1\.UART_TX1\.index\[3\]
*382 UART1\.UART_TX1\.packet\[1\]
*383 UART1\.UART_TX1\.packet\[2\]
*384 UART1\.UART_TX1\.packet\[3\]
*385 UART1\.UART_TX1\.packet\[4\]
*386 UART1\.UART_TX1\.packet\[5\]
*387 UART1\.UART_TX1\.packet\[6\]
*388 UART1\.UART_TX1\.packet\[7\]
*389 UART1\.UART_TX1\.packet\[8\]
*390 UART1\.UART_TX1\.state\[0\]
*391 UART1\.UART_TX1\.state\[1\]
*392 UART1\.UART_TX1\.state\[2\]
*393 _0000_
*394 _0001_
*395 _0002_
*396 _0003_
*397 _0004_
*398 _0005_
*399 _0006_
*400 _0007_
*401 _0008_
*402 _0009_
*403 _0010_
*404 _0011_
*405 _0012_
*406 _0013_
*407 _0014_
*408 _0015_
*409 _0016_
*410 _0017_
*411 _0018_
*412 _0019_
*413 _0020_
*414 _0021_
*415 _0022_
*416 _0023_
*417 _0024_
*418 _0025_
*419 _0026_
*420 _0027_
*421 _0028_
*422 _0029_
*423 _0030_
*424 _0031_
*425 _0032_
*426 _0033_
*427 _0034_
*428 _0035_
*429 _0036_
*430 _0037_
*431 _0038_
*432 _0039_
*433 _0040_
*434 _0041_
*435 _0042_
*436 _0043_
*437 _0044_
*438 _0045_
*439 _0046_
*440 _0047_
*441 _0048_
*442 _0049_
*443 _0050_
*444 _0051_
*445 _0052_
*446 _0053_
*447 _0054_
*448 _0055_
*449 _0056_
*450 _0057_
*451 _0058_
*452 _0059_
*453 _0060_
*454 _0061_
*455 _0062_
*456 _0063_
*457 _0064_
*458 _0065_
*459 _0066_
*460 _0067_
*461 _0068_
*462 _0069_
*463 _0070_
*464 _0071_
*465 _0072_
*466 _0073_
*467 _0074_
*468 _0075_
*469 _0076_
*470 _0077_
*471 _0078_
*472 _0079_
*473 _0080_
*474 _0081_
*475 _0082_
*476 _0083_
*477 _0084_
*478 _0085_
*479 _0086_
*480 _0087_
*481 _0088_
*482 _0089_
*483 _0090_
*484 _0091_
*485 _0092_
*486 _0093_
*487 _0094_
*488 _0095_
*489 _0096_
*490 _0097_
*491 _0098_
*492 _0099_
*493 _0100_
*494 _0101_
*495 _0102_
*496 _0103_
*497 _0104_
*498 _0105_
*499 _0106_
*500 _0107_
*501 _0108_
*502 _0109_
*503 _0110_
*504 _0111_
*505 _0112_
*506 _0113_
*507 _0114_
*508 _0115_
*509 _0116_
*510 _0117_
*511 _0118_
*512 _0119_
*513 _0120_
*514 _0121_
*515 _0122_
*516 _0123_
*517 _0124_
*518 _0125_
*519 _0126_
*520 _0127_
*521 _0128_
*522 _0129_
*523 _0130_
*524 _0131_
*525 _0132_
*526 _0133_
*527 _0134_
*528 _0135_
*529 _0136_
*530 _0137_
*531 _0138_
*532 _0139_
*533 _0140_
*534 _0141_
*535 _0142_
*536 _0143_
*537 _0144_
*538 _0145_
*539 _0146_
*540 _0147_
*541 _0148_
*542 _0149_
*543 _0150_
*544 _0151_
*545 _0152_
*546 _0153_
*547 _0154_
*548 _0155_
*549 _0156_
*550 _0157_
*551 _0158_
*552 _0159_
*553 _0160_
*554 _0161_
*555 _0162_
*556 _0163_
*557 _0164_
*558 _0165_
*559 _0166_
*560 _0167_
*561 _0168_
*562 _0169_
*563 _0170_
*564 _0171_
*565 _0172_
*566 _0173_
*567 _0174_
*568 _0175_
*569 _0176_
*570 _0177_
*571 _0178_
*572 _0179_
*573 _0180_
*574 _0181_
*575 _0182_
*576 _0183_
*577 _0184_
*578 _0185_
*579 _0186_
*580 _0187_
*581 _0188_
*582 _0189_
*583 _0190_
*584 _0191_
*585 _0192_
*586 _0193_
*587 _0194_
*588 _0195_
*589 _0196_
*590 _0197_
*591 _0198_
*592 _0199_
*593 _0200_
*594 _0201_
*595 _0202_
*596 _0203_
*597 _0204_
*598 _0205_
*599 _0206_
*600 _0207_
*601 _0208_
*602 _0209_
*603 _0210_
*604 _0211_
*605 _0212_
*606 _0213_
*607 _0214_
*608 _0215_
*609 _0216_
*610 _0217_
*611 _0218_
*612 _0219_
*613 _0220_
*614 _0221_
*615 _0222_
*616 _0223_
*617 _0224_
*618 _0225_
*619 _0226_
*620 _0227_
*621 _0228_
*622 _0229_
*623 _0230_
*624 _0231_
*625 _0232_
*626 _0233_
*627 _0234_
*628 _0235_
*629 _0236_
*630 _0237_
*631 _0238_
*632 _0239_
*633 _0240_
*634 _0241_
*635 _0242_
*636 _0243_
*637 _0244_
*638 _0245_
*639 _0246_
*640 _0247_
*641 _0248_
*642 _0249_
*643 _0250_
*644 _0251_
*645 _0252_
*646 _0253_
*647 _0254_
*648 _0255_
*649 _0256_
*650 _0257_
*651 _0258_
*652 _0259_
*653 _0260_
*654 _0261_
*655 _0262_
*656 _0263_
*657 _0264_
*658 _0265_
*659 _0266_
*660 _0267_
*661 _0268_
*662 _0269_
*663 _0270_
*664 _0271_
*665 _0272_
*666 _0273_
*667 _0274_
*668 _0275_
*669 _0276_
*670 _0277_
*671 _0278_
*672 _0279_
*673 _0280_
*674 _0281_
*675 _0282_
*676 _0283_
*677 _0284_
*678 _0285_
*679 _0286_
*680 _0287_
*681 _0288_
*682 _0289_
*683 _0290_
*684 _0291_
*685 _0292_
*686 _0293_
*687 _0294_
*688 _0295_
*689 _0296_
*690 _0297_
*691 _0298_
*692 _0299_
*693 _0300_
*694 _0301_
*695 _0302_
*696 _0303_
*697 _0304_
*698 _0305_
*699 _0306_
*700 _0307_
*701 _0308_
*702 _0309_
*703 _0310_
*704 _0311_
*705 _0312_
*706 _0313_
*707 _0314_
*708 _0315_
*709 _0316_
*710 _0317_
*711 _0318_
*712 _0319_
*713 _0320_
*714 _0321_
*715 _0322_
*716 _0323_
*717 _0324_
*718 _0325_
*719 _0326_
*720 _0327_
*721 _0328_
*722 _0329_
*723 _0330_
*724 _0331_
*725 _0332_
*726 _0333_
*727 _0334_
*728 _0335_
*729 _0336_
*730 _0337_
*731 _0338_
*732 _0339_
*733 _0340_
*734 _0341_
*735 _0342_
*736 _0343_
*737 _0344_
*738 _0345_
*739 _0346_
*740 _0347_
*741 _0348_
*742 _0349_
*743 _0350_
*744 _0351_
*745 _0352_
*746 _0353_
*747 _0354_
*748 _0355_
*749 _0356_
*750 _0357_
*751 _0358_
*752 _0359_
*753 _0360_
*754 _0361_
*755 _0362_
*756 _0363_
*757 _0364_
*758 _0365_
*759 _0366_
*760 _0367_
*761 _0368_
*762 _0369_
*763 _0370_
*764 _0371_
*765 _0372_
*766 _0373_
*767 _0374_
*768 _0375_
*769 _0376_
*770 _0377_
*771 _0378_
*772 _0379_
*773 _0380_
*774 _0381_
*775 _0382_
*776 _0383_
*777 _0384_
*778 _0385_
*779 _0386_
*780 _0387_
*781 _0388_
*782 _0389_
*783 _0390_
*784 _0391_
*785 _0392_
*786 _0393_
*787 _0394_
*788 _0395_
*789 _0396_
*790 _0397_
*791 _0398_
*792 _0399_
*793 _0400_
*794 _0401_
*795 _0402_
*796 _0403_
*797 _0404_
*798 _0405_
*799 _0406_
*800 _0407_
*801 _0408_
*802 _0409_
*803 _0410_
*804 _0411_
*805 _0412_
*806 _0413_
*807 _0414_
*808 _0415_
*809 _0416_
*810 _0417_
*811 _0418_
*812 _0419_
*813 _0420_
*814 _0421_
*815 _0422_
*816 _0423_
*817 _0424_
*818 _0425_
*819 _0426_
*820 _0427_
*821 _0428_
*822 _0429_
*823 _0430_
*824 _0431_
*825 _0432_
*826 _0433_
*827 _0434_
*828 _0435_
*829 _0436_
*830 _0437_
*831 _0438_
*832 _0439_
*833 _0440_
*834 _0441_
*835 _0442_
*836 _0443_
*837 _0444_
*838 _0445_
*839 _0446_
*840 _0447_
*841 _0448_
*842 _0449_
*843 _0450_
*844 _0451_
*845 _0452_
*846 _0453_
*847 _0454_
*848 _0455_
*849 _0456_
*850 _0457_
*851 _0458_
*852 _0459_
*853 _0460_
*854 _0461_
*855 _0462_
*856 _0463_
*857 _0464_
*858 _0465_
*859 _0466_
*860 _0467_
*861 _0468_
*862 _0469_
*863 _0470_
*864 _0471_
*865 _0472_
*866 _0473_
*867 _0474_
*868 _0475_
*869 _0476_
*870 _0477_
*871 _0478_
*872 _0479_
*873 _0480_
*874 _0481_
*875 _0482_
*876 _0483_
*877 _0484_
*878 _0485_
*879 _0486_
*880 _0487_
*881 _0488_
*882 _0489_
*883 _0490_
*884 _0491_
*885 _0492_
*886 _0493_
*887 _0494_
*888 _0495_
*889 _0496_
*890 _0497_
*891 _0498_
*892 _0499_
*893 _0500_
*894 _0501_
*895 _0502_
*896 _0503_
*897 _0504_
*898 _0505_
*899 _0506_
*900 _0507_
*901 _0508_
*902 _0509_
*903 _0510_
*904 _0511_
*905 _0512_
*906 _0513_
*907 _0514_
*908 _0515_
*909 _0516_
*910 _0517_
*911 _0518_
*912 _0519_
*913 _0520_
*914 _0521_
*915 _0522_
*916 _0523_
*917 _0524_
*918 _0525_
*919 _0526_
*920 _0527_
*921 _0528_
*922 _0529_
*923 _0530_
*924 _0531_
*925 _0532_
*926 _0533_
*927 _0534_
*928 _0535_
*929 _0536_
*930 _0537_
*931 _0538_
*932 _0539_
*933 _0540_
*934 _0541_
*935 _0542_
*936 _0543_
*937 _0544_
*938 _0545_
*939 _0546_
*940 _0547_
*941 _0548_
*942 _0549_
*943 _0550_
*944 _0551_
*945 _0552_
*946 _0553_
*947 _0554_
*948 _0555_
*949 _0556_
*950 _0557_
*951 _0558_
*952 _0559_
*953 _0560_
*954 _0561_
*955 _0562_
*956 _0563_
*957 _0564_
*958 _0565_
*959 _0566_
*960 _0567_
*961 _0568_
*962 _0569_
*963 _0570_
*964 _0571_
*965 _0572_
*966 _0573_
*967 _0574_
*968 _0575_
*969 _0576_
*970 _0577_
*971 _0578_
*972 _0579_
*973 _0580_
*974 _0581_
*975 _0582_
*976 _0583_
*977 _0584_
*978 _0585_
*979 _0586_
*980 _0587_
*981 _0588_
*982 _0589_
*983 _0590_
*984 _0591_
*985 _0592_
*986 _0593_
*987 _0594_
*988 _0595_
*989 _0596_
*990 _0597_
*991 _0598_
*992 _0599_
*993 _0600_
*994 _0601_
*995 _0602_
*996 _0603_
*997 _0604_
*998 _0605_
*999 _0606_
*1000 _0607_
*1001 _0608_
*1002 _0609_
*1003 _0610_
*1004 _0611_
*1005 _0612_
*1006 _0613_
*1007 _0614_
*1008 _0615_
*1009 _0616_
*1010 _0617_
*1011 _0618_
*1012 _0619_
*1013 _0620_
*1014 _0621_
*1015 _0622_
*1016 _0623_
*1017 _0624_
*1018 _0625_
*1019 _0626_
*1020 _0627_
*1021 _0628_
*1022 _0629_
*1023 _0630_
*1024 _0631_
*1025 _0632_
*1026 _0633_
*1027 _0634_
*1028 _0635_
*1029 _0636_
*1030 _0637_
*1031 _0638_
*1032 _0639_
*1033 _0640_
*1034 _0641_
*1035 _0642_
*1036 _0643_
*1037 _0644_
*1038 _0645_
*1039 _0646_
*1040 _0647_
*1041 _0648_
*1042 _0649_
*1043 _0650_
*1044 _0651_
*1045 _0652_
*1046 _0653_
*1047 _0654_
*1048 _0655_
*1049 _0656_
*1050 _0657_
*1051 _0658_
*1052 _0659_
*1053 _0660_
*1054 _0661_
*1055 _0662_
*1056 _0663_
*1057 _0664_
*1058 _0665_
*1059 _0666_
*1060 _0667_
*1061 _0668_
*1062 _0669_
*1063 _0670_
*1064 _0671_
*1065 _0672_
*1066 _0673_
*1067 _0674_
*1068 _0675_
*1069 _0676_
*1070 _0677_
*1071 _0678_
*1072 _0679_
*1073 _0680_
*1074 _0681_
*1075 _0682_
*1076 _0683_
*1077 _0684_
*1078 _0685_
*1079 _0686_
*1080 _0687_
*1081 _0688_
*1082 _0689_
*1083 _0690_
*1084 _0691_
*1085 _0692_
*1086 _0693_
*1087 _0694_
*1088 _0695_
*1089 _0696_
*1090 _0697_
*1091 _0698_
*1092 _0699_
*1093 _0700_
*1094 _0701_
*1095 _0702_
*1096 _0703_
*1097 _0704_
*1098 _0705_
*1099 _0706_
*1100 _0707_
*1101 _0708_
*1102 _0709_
*1103 _0710_
*1104 _0711_
*1105 _0712_
*1106 _0713_
*1107 _0714_
*1108 _0715_
*1109 _0716_
*1110 _0717_
*1111 _0718_
*1112 _0719_
*1113 _0720_
*1114 _0721_
*1115 _0722_
*1116 _0723_
*1117 _0724_
*1118 _0725_
*1119 _0726_
*1120 _0727_
*1121 _0728_
*1122 _0729_
*1123 _0730_
*1124 _0731_
*1125 _0732_
*1126 _0733_
*1127 _0734_
*1128 _0735_
*1129 _0736_
*1130 _0737_
*1131 _0738_
*1132 _0739_
*1133 _0740_
*1134 _0741_
*1135 _0742_
*1136 _0743_
*1137 _0744_
*1138 _0745_
*1139 _0746_
*1140 _0747_
*1141 _0748_
*1142 _0749_
*1143 _0750_
*1144 _0751_
*1145 _0752_
*1146 _0753_
*1147 _0754_
*1148 _0755_
*1149 _0756_
*1150 _0757_
*1151 _0758_
*1152 _0759_
*1153 _0760_
*1154 _0761_
*1155 _0762_
*1156 _0763_
*1157 _0764_
*1158 _0765_
*1159 _0766_
*1160 _0767_
*1161 _0768_
*1162 _0769_
*1163 _0770_
*1164 _0771_
*1165 _0772_
*1166 _0773_
*1167 _0774_
*1168 _0775_
*1169 _0776_
*1170 _0777_
*1171 _0778_
*1172 _0779_
*1173 _0780_
*1174 _0781_
*1175 _0782_
*1176 _0783_
*1177 _0784_
*1178 _0785_
*1179 _0786_
*1180 _0787_
*1181 _0788_
*1182 _0789_
*1183 _0790_
*1184 _0791_
*1185 _0792_
*1186 _0793_
*1187 _0794_
*1188 _0795_
*1189 _0796_
*1190 _0797_
*1191 _0798_
*1192 _0799_
*1193 _0800_
*1194 _0801_
*1195 _0802_
*1196 _0803_
*1197 _0804_
*1198 _0805_
*1199 _0806_
*1200 _0807_
*1201 _0808_
*1202 _0809_
*1203 _0810_
*1204 _0811_
*1205 _0812_
*1206 _0813_
*1207 _0814_
*1208 _0815_
*1209 _0816_
*1210 _0817_
*1211 _0818_
*1212 _0819_
*1213 _0820_
*1214 _0821_
*1215 _0822_
*1216 _0823_
*1217 _0824_
*1218 _0825_
*1219 _0826_
*1220 _0827_
*1221 _0828_
*1222 _0829_
*1223 _0830_
*1224 _0831_
*1225 _0832_
*1226 _0833_
*1227 _0834_
*1228 _0835_
*1229 _0836_
*1230 _0837_
*1231 _0838_
*1232 _0839_
*1233 _0840_
*1234 _0841_
*1235 _0842_
*1236 _0843_
*1237 _0844_
*1238 _0845_
*1239 _0846_
*1240 _0847_
*1241 _0848_
*1242 _0849_
*1243 _0850_
*1244 _0851_
*1245 _0852_
*1246 _0853_
*1247 _0854_
*1248 _0855_
*1249 _0856_
*1250 _0857_
*1251 _0858_
*1252 _0859_
*1253 _0860_
*1254 _0861_
*1255 _0862_
*1256 _0863_
*1257 _0864_
*1258 _0865_
*1259 _0866_
*1260 _0867_
*1261 _0868_
*1262 _0869_
*1263 _0870_
*1264 _0871_
*1265 _0872_
*1266 _0873_
*1267 _0874_
*1268 _0875_
*1269 _0876_
*1270 _0877_
*1271 _0878_
*1272 _0879_
*1273 _0880_
*1274 _0881_
*1275 _0882_
*1276 _0883_
*1277 _0884_
*1278 _0885_
*1279 _0886_
*1280 _0887_
*1281 _0888_
*1282 _0889_
*1283 _0890_
*1284 _0891_
*1285 _0892_
*1286 _0893_
*1287 _0894_
*1288 _0895_
*1289 _0896_
*1290 _0897_
*1291 _0898_
*1292 _0899_
*1293 _0900_
*1294 _0901_
*1295 _0902_
*1296 _0903_
*1297 _0904_
*1298 _0905_
*1299 _0906_
*1300 _0907_
*1301 _0908_
*1302 _0909_
*1303 _0910_
*1304 _0911_
*1305 _0912_
*1306 _0913_
*1307 _0914_
*1308 _0915_
*1309 _0916_
*1310 _0917_
*1311 _0918_
*1312 _0919_
*1313 _0920_
*1314 _0921_
*1315 _0922_
*1316 _0923_
*1317 _0924_
*1318 _0925_
*1319 _0926_
*1320 _0927_
*1321 _0928_
*1322 _0929_
*1323 _0930_
*1324 _0931_
*1325 _0932_
*1326 _0933_
*1327 _0934_
*1328 _0935_
*1329 _0936_
*1330 _0937_
*1331 _0938_
*1332 _0939_
*1333 _0940_
*1334 _0941_
*1335 _0942_
*1336 _0943_
*1337 _0944_
*1338 _0945_
*1339 _0946_
*1340 _0947_
*1341 _0948_
*1342 _0949_
*1343 _0950_
*1344 _0951_
*1345 _0952_
*1346 _0953_
*1347 _0954_
*1348 _0955_
*1349 _0956_
*1350 _0957_
*1351 _0958_
*1352 _0959_
*1353 _0960_
*1354 _0961_
*1355 _0962_
*1356 _0963_
*1357 _0964_
*1358 _0965_
*1359 _0966_
*1360 _0967_
*1361 _0968_
*1362 _0969_
*1363 _0970_
*1364 _0971_
*1365 _0972_
*1366 _0973_
*1367 _0974_
*1368 _0975_
*1369 _0976_
*1370 _0977_
*1371 _0978_
*1372 _0979_
*1373 _0980_
*1374 _0981_
*1375 _0982_
*1376 _0983_
*1377 _0984_
*1378 _0985_
*1379 _0986_
*1380 _0987_
*1381 _0988_
*1382 _0989_
*1383 _0990_
*1384 _0991_
*1385 _0992_
*1386 _0993_
*1387 _0994_
*1388 _0995_
*1389 _0996_
*1390 _0997_
*1391 _0998_
*1392 _0999_
*1393 _1000_
*1394 _1001_
*1395 _1002_
*1396 _1003_
*1397 _1004_
*1398 _1005_
*1399 _1006_
*1400 _1007_
*1401 _1008_
*1402 _1009_
*1403 _1010_
*1404 _1011_
*1405 _1012_
*1406 _1013_
*1407 _1014_
*1408 _1015_
*1409 _1016_
*1410 _1017_
*1411 _1018_
*1412 _1019_
*1413 _1020_
*1414 _1021_
*1415 _1022_
*1416 _1023_
*1417 _1024_
*1418 _1025_
*1419 _1026_
*1420 _1027_
*1421 _1028_
*1422 _1029_
*1423 _1030_
*1424 _1031_
*1425 _1032_
*1426 _1033_
*1427 _1034_
*1428 _1035_
*1429 _1036_
*1430 _1037_
*1431 _1038_
*1432 _1039_
*1433 _1040_
*1434 _1041_
*1435 _1042_
*1436 _1043_
*1437 _1044_
*1438 _1045_
*1439 _1046_
*1440 _1047_
*1441 _1048_
*1442 _1049_
*1443 _1050_
*1444 _1051_
*1445 _1052_
*1446 _1053_
*1447 _1054_
*1448 _1055_
*1449 _1056_
*1450 _1057_
*1451 _1058_
*1452 _1059_
*1453 _1060_
*1454 _1061_
*1455 _1062_
*1456 _1063_
*1457 _1064_
*1458 _1065_
*1459 _1066_
*1460 _1067_
*1461 _1068_
*1462 _1069_
*1463 _1070_
*1464 _1071_
*1465 _1072_
*1466 _1073_
*1467 _1074_
*1468 _1075_
*1469 _1076_
*1470 _1077_
*1471 _1078_
*1472 _1079_
*1473 _1080_
*1474 _1081_
*1475 _1082_
*1476 _1083_
*1477 _1084_
*1478 _1085_
*1479 _1086_
*1480 _1087_
*1481 _1088_
*1482 _1089_
*1483 _1090_
*1484 _1091_
*1485 _1092_
*1486 _1093_
*1487 _1094_
*1488 _1095_
*1489 _1096_
*1490 _1097_
*1491 _1098_
*1492 _1099_
*1493 _1100_
*1494 _1101_
*1495 _1102_
*1496 _1103_
*1497 _1104_
*1498 _1105_
*1499 _1106_
*1500 _1107_
*1501 _1108_
*1502 _1109_
*1503 _1110_
*1504 _1111_
*1505 _1112_
*1506 _1113_
*1507 _1114_
*1508 _1115_
*1509 _1116_
*1510 _1117_
*1511 _1118_
*1512 _1119_
*1513 _1120_
*1514 _1121_
*1515 _1122_
*1516 _1123_
*1517 _1124_
*1518 _1125_
*1519 _1126_
*1520 _1127_
*1521 _1128_
*1522 _1129_
*1523 _1130_
*1524 _1131_
*1525 _1132_
*1526 _1133_
*1527 _1134_
*1528 _1135_
*1529 _1136_
*1530 _1137_
*1531 _1138_
*1532 _1139_
*1533 _1140_
*1534 _1141_
*1535 _1142_
*1536 _1143_
*1537 _1144_
*1538 _1145_
*1539 _1146_
*1540 _1147_
*1541 _1148_
*1542 _1149_
*1543 _1150_
*1544 _1151_
*1545 _1152_
*1546 _1153_
*1547 _1154_
*1548 _1155_
*1549 _1156_
*1550 _1157_
*1551 _1158_
*1552 _1159_
*1553 _1160_
*1554 _1161_
*1555 _1162_
*1556 _1163_
*1557 _1164_
*1558 _1165_
*1559 _1166_
*1560 _1167_
*1561 _1168_
*1562 _1169_
*1563 _1170_
*1564 _1171_
*1565 _1172_
*1566 _1173_
*1567 _1174_
*1568 _1175_
*1569 _1176_
*1570 _1177_
*1571 _1178_
*1572 _1179_
*1573 _1180_
*1574 _1181_
*1575 _1182_
*1576 _1183_
*1577 _1184_
*1578 _1185_
*1579 _1186_
*1580 _1187_
*1581 _1188_
*1582 _1189_
*1583 _1190_
*1584 _1191_
*1585 _1192_
*1586 _1193_
*1587 _1194_
*1588 _1195_
*1589 _1196_
*1590 _1197_
*1591 _1198_
*1592 _1199_
*1593 _1200_
*1594 _1201_
*1595 _1202_
*1596 _1203_
*1597 _1204_
*1598 _1205_
*1599 _1206_
*1600 _1207_
*1601 _1208_
*1602 _1209_
*1603 _1210_
*1604 _1211_
*1605 _1212_
*1606 _1213_
*1607 _1214_
*1608 _1215_
*1609 _1216_
*1610 _1217_
*1611 _1218_
*1612 _1219_
*1613 _1220_
*1614 _1221_
*1615 _1222_
*1616 _1223_
*1617 _1224_
*1618 _1225_
*1619 _1226_
*1620 _1227_
*1621 _1228_
*1622 _1229_
*1623 _1230_
*1624 _1231_
*1625 _1232_
*1626 _1233_
*1627 _1234_
*1628 _1235_
*1629 _1236_
*1630 _1237_
*1631 _1238_
*1632 _1239_
*1633 _1240_
*1634 _1241_
*1635 _1242_
*1636 _1243_
*1637 _1244_
*1638 _1245_
*1639 _1246_
*1640 _1247_
*1641 _1248_
*1642 _1249_
*1643 _1250_
*1644 _1251_
*1645 _1252_
*1646 _1253_
*1647 _1254_
*1648 _1255_
*1649 _1256_
*1650 _1257_
*1651 _1258_
*1652 _1259_
*1653 _1260_
*1654 _1261_
*1655 _1262_
*1656 _1263_
*1657 _1264_
*1658 _1265_
*1659 _1266_
*1660 _1267_
*1661 _1268_
*1662 _1269_
*1663 _1270_
*1664 _1271_
*1665 _1272_
*1666 _1273_
*1667 _1274_
*1668 _1275_
*1669 _1276_
*1670 _1277_
*1671 _1278_
*1672 _1279_
*1673 _1280_
*1674 _1281_
*1675 _1282_
*1676 _1283_
*1677 _1284_
*1678 _1285_
*1679 _1286_
*1680 _1287_
*1681 _1288_
*1682 _1289_
*1683 _1290_
*1684 _1291_
*1685 _1292_
*1686 _1293_
*1687 _1294_
*1688 _1295_
*1689 _1296_
*1690 _1297_
*1691 _1298_
*1692 _1299_
*1693 _1300_
*1694 _1301_
*1695 _1302_
*1696 _1303_
*1697 _1304_
*1698 _1305_
*1699 _1306_
*1700 _1307_
*1701 _1308_
*1702 _1309_
*1703 _1310_
*1704 _1311_
*1705 _1312_
*1706 _1313_
*1707 _1314_
*1708 _1315_
*1709 _1316_
*1710 _1317_
*1711 _1318_
*1712 _1319_
*1713 _1320_
*1714 _1321_
*1715 _1322_
*1716 _1323_
*1717 _1324_
*1718 _1325_
*1719 _1326_
*1720 _1327_
*1721 _1328_
*1722 _1329_
*1723 _1330_
*1724 _1331_
*1725 _1332_
*1726 _1333_
*1727 _1334_
*1728 _1335_
*1729 _1336_
*1730 _1337_
*1731 _1338_
*1732 _1339_
*1733 _1340_
*1734 _1341_
*1735 _1342_
*1736 _1343_
*1737 _1344_
*1738 _1345_
*1739 _1346_
*1740 _1347_
*1741 _1348_
*1742 _1349_
*1743 _1350_
*1744 _1351_
*1745 _1352_
*1746 _1353_
*1747 _1354_
*1748 _1355_
*1749 _1356_
*1750 _1357_
*1751 _1358_
*1752 _1359_
*1753 _1360_
*1754 _1361_
*1755 _1362_
*1756 _1363_
*1757 _1364_
*1758 _1365_
*1759 _1366_
*1760 _1367_
*1761 _1368_
*1762 _1369_
*1763 _1370_
*1764 _1371_
*1765 _1372_
*1766 _1373_
*1767 _1374_
*1768 _1375_
*1769 _1376_
*1770 _1377_
*1771 _1378_
*1772 _1379_
*1773 _1380_
*1774 _1381_
*1775 _1382_
*1776 _1383_
*1777 _1384_
*1778 _1385_
*1779 _1386_
*1780 _1387_
*1781 _1388_
*1782 _1389_
*1783 _1390_
*1784 _1391_
*1785 _1392_
*1786 _1393_
*1787 _1394_
*1788 _1395_
*1789 _1396_
*1790 _1397_
*1791 _1398_
*1792 _1399_
*1793 _1400_
*1794 _1401_
*1795 _1402_
*1796 _1403_
*1797 _1404_
*1798 _1405_
*1799 _1406_
*1800 _1407_
*1801 _1408_
*1802 _1409_
*1803 _1410_
*1804 _1411_
*1805 _1412_
*1806 _1413_
*1807 _1414_
*1808 _1415_
*1809 _1416_
*1810 _1417_
*1811 _1418_
*1812 _1419_
*1813 _1420_
*1814 _1421_
*1815 _1422_
*1816 _1423_
*1817 _1424_
*1818 _1425_
*1819 _1426_
*1820 _1427_
*1821 _1428_
*1822 _1429_
*1823 _1430_
*1824 _1431_
*1825 _1432_
*1826 _1433_
*1827 _1434_
*1828 _1435_
*1829 _1436_
*1830 _1437_
*1831 _1438_
*1832 _1439_
*1833 _1440_
*1834 _1441_
*1835 _1442_
*1836 _1443_
*1837 _1444_
*1838 _1445_
*1839 _1446_
*1840 _1447_
*1841 _1448_
*1842 _1449_
*1843 _1450_
*1844 _1451_
*1845 _1452_
*1846 _1453_
*1847 _1454_
*1848 _1455_
*1849 _1456_
*1850 _1457_
*1851 _1458_
*1852 _1459_
*1853 _1460_
*1854 _1461_
*1855 _1462_
*1856 _1463_
*1857 _1464_
*1858 _1465_
*1859 _1466_
*1860 _1467_
*1861 _1468_
*1862 _1469_
*1863 _1470_
*1864 _1471_
*1865 _1472_
*1866 _1473_
*1867 _1474_
*1868 _1475_
*1869 _1476_
*1870 _1477_
*1871 _1478_
*1872 _1479_
*1873 _1480_
*1874 _1481_
*1875 _1482_
*1876 _1483_
*1877 _1484_
*1878 _1485_
*1879 _1486_
*1880 _1487_
*1881 _1488_
*1882 _1489_
*1883 _1490_
*1884 _1491_
*1885 _1492_
*1886 _1493_
*1887 _1494_
*1888 _1495_
*1889 _1496_
*1890 _1497_
*1891 _1498_
*1892 _1499_
*1893 _1500_
*1894 _1501_
*1895 _1502_
*1896 _1503_
*1897 _1504_
*1898 _1505_
*1899 _1506_
*1900 _1507_
*1901 _1508_
*1902 _1509_
*1903 _1510_
*1904 _1511_
*1905 _1512_
*1906 _1513_
*1907 _1514_
*1908 _1515_
*1909 _1516_
*1910 _1517_
*1911 _1518_
*1912 _1519_
*1913 _1520_
*1914 _1521_
*1915 _1522_
*1916 _1523_
*1917 _1524_
*1918 _1525_
*1919 _1526_
*1920 _1527_
*1921 _1528_
*1922 _1529_
*1923 _1530_
*1924 _1531_
*1925 _1532_
*1926 _1533_
*1927 _1534_
*1928 _1535_
*1929 _1536_
*1930 _1537_
*1931 _1538_
*1932 _1539_
*1933 _1540_
*1934 _1541_
*1935 _1542_
*1936 _1543_
*1937 _1544_
*1938 _1545_
*1939 _1546_
*1940 _1547_
*1941 _1548_
*1942 _1549_
*1943 _1550_
*1944 _1551_
*1945 _1552_
*1946 _1553_