* NGSPICE file created from simproc_system.ext - technology: sky130A

* Black-box entry subcircuit for sky130_fd_sc_hd__nand2_1 abstract view
.subckt sky130_fd_sc_hd__nand2_1 A B VGND VNB VPB VPWR Y
.ends

* Black-box entry subcircuit for sky130_fd_sc_hd__fill_1 abstract view
.subckt sky130_fd_sc_hd__fill_1 VGND VNB VPB VPWR
.ends

* Black-box entry subcircuit for sky130_fd_sc_hd__o211a_1 abstract view
.subckt sky130_fd_sc_hd__o211a_1 A1 A2 B1 C1 VGND VNB VPB VPWR X
.ends

* Black-box entry subcircuit for sky130_fd_sc_hd__a32o_1 abstract view
.subckt sky130_fd_sc_hd__a32o_1 A1 A2 A3 B1 B2 VGND VNB VPB VPWR X
.ends

* Black-box entry subcircuit for sky130_fd_sc_hd__decap_6 abstract view
.subckt sky130_fd_sc_hd__decap_6 VGND VNB VPB VPWR
.ends

* Black-box entry subcircuit for sky130_fd_sc_hd__or4bb_1 abstract view
.subckt sky130_fd_sc_hd__or4bb_1 A B C_N D_N VGND VNB VPB VPWR X
.ends

* Black-box entry subcircuit for sky130_ef_sc_hd__decap_12 abstract view
.subckt sky130_ef_sc_hd__decap_12 VGND VNB VPB VPWR
.ends

* Black-box entry subcircuit for sky130_fd_sc_hd__mux2_1 abstract view
.subckt sky130_fd_sc_hd__mux2_1 A0 A1 S VGND VNB VPB VPWR X
.ends

* Black-box entry subcircuit for sky130_fd_sc_hd__decap_3 abstract view
.subckt sky130_fd_sc_hd__decap_3 VGND VNB VPB VPWR
.ends

* Black-box entry subcircuit for sky130_fd_sc_hd__and2_1 abstract view
.subckt sky130_fd_sc_hd__and2_1 A B VGND VNB VPB VPWR X
.ends

* Black-box entry subcircuit for sky130_fd_sc_hd__a221o_1 abstract view
.subckt sky130_fd_sc_hd__a221o_1 A1 A2 B1 B2 C1 VGND VNB VPB VPWR X
.ends

* Black-box entry subcircuit for sky130_fd_sc_hd__dfxtp_1 abstract view
.subckt sky130_fd_sc_hd__dfxtp_1 CLK D VGND VNB VPB VPWR Q
.ends

* Black-box entry subcircuit for sky130_fd_sc_hd__clkbuf_4 abstract view
.subckt sky130_fd_sc_hd__clkbuf_4 A VGND VNB VPB VPWR X
.ends

* Black-box entry subcircuit for sky130_fd_sc_hd__buf_4 abstract view
.subckt sky130_fd_sc_hd__buf_4 A VGND VNB VPB VPWR X
.ends

* Black-box entry subcircuit for sky130_fd_sc_hd__inv_2 abstract view
.subckt sky130_fd_sc_hd__inv_2 A VGND VNB VPB VPWR Y
.ends

* Black-box entry subcircuit for sky130_fd_sc_hd__decap_4 abstract view
.subckt sky130_fd_sc_hd__decap_4 VGND VNB VPB VPWR
.ends

* Black-box entry subcircuit for sky130_fd_sc_hd__o21a_1 abstract view
.subckt sky130_fd_sc_hd__o21a_1 A1 A2 B1 VGND VNB VPB VPWR X
.ends

* Black-box entry subcircuit for sky130_fd_sc_hd__fill_2 abstract view
.subckt sky130_fd_sc_hd__fill_2 VGND VNB VPB VPWR
.ends

* Black-box entry subcircuit for sky130_fd_sc_hd__clkbuf_1 abstract view
.subckt sky130_fd_sc_hd__clkbuf_1 A VGND VNB VPB VPWR X
.ends

* Black-box entry subcircuit for sky130_fd_sc_hd__or2_1 abstract view
.subckt sky130_fd_sc_hd__or2_1 A B VGND VNB VPB VPWR X
.ends

* Black-box entry subcircuit for sky130_fd_sc_hd__dfxtp_2 abstract view
.subckt sky130_fd_sc_hd__dfxtp_2 CLK D VGND VNB VPB VPWR Q
.ends

* Black-box entry subcircuit for sky130_fd_sc_hd__clkbuf_8 abstract view
.subckt sky130_fd_sc_hd__clkbuf_8 A VGND VNB VPB VPWR X
.ends

* Black-box entry subcircuit for sky130_fd_sc_hd__a22oi_4 abstract view
.subckt sky130_fd_sc_hd__a22oi_4 A1 A2 B1 B2 VGND VNB VPB VPWR Y
.ends

* Black-box entry subcircuit for sky130_fd_sc_hd__nand2_4 abstract view
.subckt sky130_fd_sc_hd__nand2_4 A B VGND VNB VPB VPWR Y
.ends

* Black-box entry subcircuit for sky130_fd_sc_hd__tapvpwrvgnd_1 abstract view
.subckt sky130_fd_sc_hd__tapvpwrvgnd_1 VGND VPWR
.ends

* Black-box entry subcircuit for sky130_fd_sc_hd__a22o_2 abstract view
.subckt sky130_fd_sc_hd__a22o_2 A1 A2 B1 B2 VGND VNB VPB VPWR X
.ends

* Black-box entry subcircuit for sky130_fd_sc_hd__buf_2 abstract view
.subckt sky130_fd_sc_hd__buf_2 A VGND VNB VPB VPWR X
.ends

* Black-box entry subcircuit for sky130_fd_sc_hd__o221a_1 abstract view
.subckt sky130_fd_sc_hd__o221a_1 A1 A2 B1 B2 C1 VGND VNB VPB VPWR X
.ends

* Black-box entry subcircuit for sky130_fd_sc_hd__dlygate4sd3_1 abstract view
.subckt sky130_fd_sc_hd__dlygate4sd3_1 A VGND VNB VPB VPWR X
.ends

* Black-box entry subcircuit for sky130_fd_sc_hd__diode_2 abstract view
.subckt sky130_fd_sc_hd__diode_2 DIODE VGND VNB VPB VPWR
.ends

* Black-box entry subcircuit for sky130_fd_sc_hd__a311o_1 abstract view
.subckt sky130_fd_sc_hd__a311o_1 A1 A2 A3 B1 C1 VGND VNB VPB VPWR X
.ends

* Black-box entry subcircuit for sky130_fd_sc_hd__dfxtp_4 abstract view
.subckt sky130_fd_sc_hd__dfxtp_4 CLK D VGND VNB VPB VPWR Q
.ends

* Black-box entry subcircuit for sky130_fd_sc_hd__a31o_1 abstract view
.subckt sky130_fd_sc_hd__a31o_1 A1 A2 A3 B1 VGND VNB VPB VPWR X
.ends

* Black-box entry subcircuit for sky130_fd_sc_hd__nor2_1 abstract view
.subckt sky130_fd_sc_hd__nor2_1 A B VGND VNB VPB VPWR Y
.ends

* Black-box entry subcircuit for sky130_fd_sc_hd__a21oi_1 abstract view
.subckt sky130_fd_sc_hd__a21oi_1 A1 A2 B1 VGND VNB VPB VPWR Y
.ends

* Black-box entry subcircuit for sky130_fd_sc_hd__nor2_2 abstract view
.subckt sky130_fd_sc_hd__nor2_2 A B VGND VNB VPB VPWR Y
.ends

* Black-box entry subcircuit for sky130_fd_sc_hd__a32oi_2 abstract view
.subckt sky130_fd_sc_hd__a32oi_2 A1 A2 A3 B1 B2 VGND VNB VPB VPWR Y
.ends

* Black-box entry subcircuit for sky130_fd_sc_hd__nor2_4 abstract view
.subckt sky130_fd_sc_hd__nor2_4 A B VGND VNB VPB VPWR Y
.ends

* Black-box entry subcircuit for sky130_fd_sc_hd__or3b_1 abstract view
.subckt sky130_fd_sc_hd__or3b_1 A B C_N VGND VNB VPB VPWR X
.ends

* Black-box entry subcircuit for sky130_fd_sc_hd__a21o_2 abstract view
.subckt sky130_fd_sc_hd__a21o_2 A1 A2 B1 VGND VNB VPB VPWR X
.ends

* Black-box entry subcircuit for sky130_fd_sc_hd__a211o_2 abstract view
.subckt sky130_fd_sc_hd__a211o_2 A1 A2 B1 C1 VGND VNB VPB VPWR X
.ends

* Black-box entry subcircuit for sky130_fd_sc_hd__decap_8 abstract view
.subckt sky130_fd_sc_hd__decap_8 VGND VNB VPB VPWR
.ends

* Black-box entry subcircuit for sky130_fd_sc_hd__a21bo_1 abstract view
.subckt sky130_fd_sc_hd__a21bo_1 A1 A2 B1_N VGND VNB VPB VPWR X
.ends

* Black-box entry subcircuit for sky130_fd_sc_hd__a211o_1 abstract view
.subckt sky130_fd_sc_hd__a211o_1 A1 A2 B1 C1 VGND VNB VPB VPWR X
.ends

* Black-box entry subcircuit for sky130_fd_sc_hd__o211a_2 abstract view
.subckt sky130_fd_sc_hd__o211a_2 A1 A2 B1 C1 VGND VNB VPB VPWR X
.ends

* Black-box entry subcircuit for sky130_fd_sc_hd__or4b_1 abstract view
.subckt sky130_fd_sc_hd__or4b_1 A B C D_N VGND VNB VPB VPWR X
.ends

* Black-box entry subcircuit for sky130_fd_sc_hd__o32a_1 abstract view
.subckt sky130_fd_sc_hd__o32a_1 A1 A2 A3 B1 B2 VGND VNB VPB VPWR X
.ends

* Black-box entry subcircuit for sky130_fd_sc_hd__and3_2 abstract view
.subckt sky130_fd_sc_hd__and3_2 A B C VGND VNB VPB VPWR X
.ends

* Black-box entry subcircuit for sky130_fd_sc_hd__a22o_1 abstract view
.subckt sky130_fd_sc_hd__a22o_1 A1 A2 B1 B2 VGND VNB VPB VPWR X
.ends

* Black-box entry subcircuit for sky130_fd_sc_hd__buf_1 abstract view
.subckt sky130_fd_sc_hd__buf_1 A VGND VNB VPB VPWR X
.ends

* Black-box entry subcircuit for sky130_fd_sc_hd__or4b_4 abstract view
.subckt sky130_fd_sc_hd__or4b_4 A B C D_N VGND VNB VPB VPWR X
.ends

* Black-box entry subcircuit for sky130_fd_sc_hd__o21ai_2 abstract view
.subckt sky130_fd_sc_hd__o21ai_2 A1 A2 B1 VGND VNB VPB VPWR Y
.ends

* Black-box entry subcircuit for sky130_fd_sc_hd__or4_1 abstract view
.subckt sky130_fd_sc_hd__or4_1 A B C D VGND VNB VPB VPWR X
.ends

* Black-box entry subcircuit for sky130_fd_sc_hd__a21o_1 abstract view
.subckt sky130_fd_sc_hd__a21o_1 A1 A2 B1 VGND VNB VPB VPWR X
.ends

* Black-box entry subcircuit for sky130_fd_sc_hd__o31ai_4 abstract view
.subckt sky130_fd_sc_hd__o31ai_4 A1 A2 A3 B1 VGND VNB VPB VPWR Y
.ends

* Black-box entry subcircuit for sky130_fd_sc_hd__and3_4 abstract view
.subckt sky130_fd_sc_hd__and3_4 A B C VGND VNB VPB VPWR X
.ends

* Black-box entry subcircuit for sky130_fd_sc_hd__and4_1 abstract view
.subckt sky130_fd_sc_hd__and4_1 A B C D VGND VNB VPB VPWR X
.ends

* Black-box entry subcircuit for sky130_fd_sc_hd__and4b_1 abstract view
.subckt sky130_fd_sc_hd__and4b_1 A_N B C D VGND VNB VPB VPWR X
.ends

* Black-box entry subcircuit for sky130_fd_sc_hd__mux4_1 abstract view
.subckt sky130_fd_sc_hd__mux4_1 A0 A1 A2 A3 S0 S1 VGND VNB VPB VPWR X
.ends

* Black-box entry subcircuit for sky130_fd_sc_hd__and4b_4 abstract view
.subckt sky130_fd_sc_hd__and4b_4 A_N B C D VGND VNB VPB VPWR X
.ends

* Black-box entry subcircuit for sky130_fd_sc_hd__clkbuf_16 abstract view
.subckt sky130_fd_sc_hd__clkbuf_16 A VGND VNB VPB VPWR X
.ends

* Black-box entry subcircuit for sky130_fd_sc_hd__and3_1 abstract view
.subckt sky130_fd_sc_hd__and3_1 A B C VGND VNB VPB VPWR X
.ends

* Black-box entry subcircuit for sky130_fd_sc_hd__o311a_1 abstract view
.subckt sky130_fd_sc_hd__o311a_1 A1 A2 A3 B1 C1 VGND VNB VPB VPWR X
.ends

* Black-box entry subcircuit for sky130_fd_sc_hd__nand2_2 abstract view
.subckt sky130_fd_sc_hd__nand2_2 A B VGND VNB VPB VPWR Y
.ends

* Black-box entry subcircuit for sky130_fd_sc_hd__o22a_1 abstract view
.subckt sky130_fd_sc_hd__o22a_1 A1 A2 B1 B2 VGND VNB VPB VPWR X
.ends

* Black-box entry subcircuit for sky130_fd_sc_hd__and2_2 abstract view
.subckt sky130_fd_sc_hd__and2_2 A B VGND VNB VPB VPWR X
.ends

* Black-box entry subcircuit for sky130_fd_sc_hd__o21a_4 abstract view
.subckt sky130_fd_sc_hd__o21a_4 A1 A2 B1 VGND VNB VPB VPWR X
.ends

* Black-box entry subcircuit for sky130_fd_sc_hd__or2_2 abstract view
.subckt sky130_fd_sc_hd__or2_2 A B VGND VNB VPB VPWR X
.ends

* Black-box entry subcircuit for sky130_fd_sc_hd__a41o_1 abstract view
.subckt sky130_fd_sc_hd__a41o_1 A1 A2 A3 A4 B1 VGND VNB VPB VPWR X
.ends

* Black-box entry subcircuit for sky130_fd_sc_hd__nor4_1 abstract view
.subckt sky130_fd_sc_hd__nor4_1 A B C D VGND VNB VPB VPWR Y
.ends

* Black-box entry subcircuit for sky130_fd_sc_hd__xnor2_1 abstract view
.subckt sky130_fd_sc_hd__xnor2_1 A B VGND VNB VPB VPWR Y
.ends

* Black-box entry subcircuit for sky130_fd_sc_hd__or3b_4 abstract view
.subckt sky130_fd_sc_hd__or3b_4 A B C_N VGND VNB VPB VPWR X
.ends

* Black-box entry subcircuit for sky130_fd_sc_hd__o2bb2a_1 abstract view
.subckt sky130_fd_sc_hd__o2bb2a_1 A1_N A2_N B1 B2 VGND VNB VPB VPWR X
.ends

* Black-box entry subcircuit for sky130_fd_sc_hd__and4bb_1 abstract view
.subckt sky130_fd_sc_hd__and4bb_1 A_N B_N C D VGND VNB VPB VPWR X
.ends

* Black-box entry subcircuit for sky130_fd_sc_hd__or3_4 abstract view
.subckt sky130_fd_sc_hd__or3_4 A B C VGND VNB VPB VPWR X
.ends

* Black-box entry subcircuit for sky130_fd_sc_hd__and3b_1 abstract view
.subckt sky130_fd_sc_hd__and3b_1 A_N B C VGND VNB VPB VPWR X
.ends

* Black-box entry subcircuit for sky130_fd_sc_hd__nand3_4 abstract view
.subckt sky130_fd_sc_hd__nand3_4 A B C VGND VNB VPB VPWR Y
.ends

* Black-box entry subcircuit for sky130_fd_sc_hd__a2bb2o_1 abstract view
.subckt sky130_fd_sc_hd__a2bb2o_1 A1_N A2_N B1 B2 VGND VNB VPB VPWR X
.ends

* Black-box entry subcircuit for sky130_fd_sc_hd__and2_4 abstract view
.subckt sky130_fd_sc_hd__and2_4 A B VGND VNB VPB VPWR X
.ends

* Black-box entry subcircuit for sky130_fd_sc_hd__o21ba_1 abstract view
.subckt sky130_fd_sc_hd__o21ba_1 A1 A2 B1_N VGND VNB VPB VPWR X
.ends

* Black-box entry subcircuit for sky130_fd_sc_hd__a31o_2 abstract view
.subckt sky130_fd_sc_hd__a31o_2 A1 A2 A3 B1 VGND VNB VPB VPWR X
.ends

* Black-box entry subcircuit for sky130_fd_sc_hd__or2_4 abstract view
.subckt sky130_fd_sc_hd__or2_4 A B VGND VNB VPB VPWR X
.ends

* Black-box entry subcircuit for sky130_fd_sc_hd__nand3_1 abstract view
.subckt sky130_fd_sc_hd__nand3_1 A B C VGND VNB VPB VPWR Y
.ends

* Black-box entry subcircuit for sky130_fd_sc_hd__o21ai_1 abstract view
.subckt sky130_fd_sc_hd__o21ai_1 A1 A2 B1 VGND VNB VPB VPWR Y
.ends

* Black-box entry subcircuit for sky130_fd_sc_hd__or3_1 abstract view
.subckt sky130_fd_sc_hd__or3_1 A B C VGND VNB VPB VPWR X
.ends

* Black-box entry subcircuit for sky130_fd_sc_hd__and2b_1 abstract view
.subckt sky130_fd_sc_hd__and2b_1 A_N B VGND VNB VPB VPWR X
.ends

* Black-box entry subcircuit for sky130_fd_sc_hd__or4_4 abstract view
.subckt sky130_fd_sc_hd__or4_4 A B C D VGND VNB VPB VPWR X
.ends

* Black-box entry subcircuit for sky130_fd_sc_hd__clkbuf_2 abstract view
.subckt sky130_fd_sc_hd__clkbuf_2 A VGND VNB VPB VPWR X
.ends

* Black-box entry subcircuit for sky130_fd_sc_hd__or2b_1 abstract view
.subckt sky130_fd_sc_hd__or2b_1 A B_N VGND VNB VPB VPWR X
.ends

* Black-box entry subcircuit for sky130_fd_sc_hd__o31a_1 abstract view
.subckt sky130_fd_sc_hd__o31a_1 A1 A2 A3 B1 VGND VNB VPB VPWR X
.ends

* Black-box entry subcircuit for sky130_fd_sc_hd__or3b_2 abstract view
.subckt sky130_fd_sc_hd__or3b_2 A B C_N VGND VNB VPB VPWR X
.ends

* Black-box entry subcircuit for sky130_fd_sc_hd__a22oi_2 abstract view
.subckt sky130_fd_sc_hd__a22oi_2 A1 A2 B1 B2 VGND VNB VPB VPWR Y
.ends

* Black-box entry subcircuit for sky130_fd_sc_hd__nand3b_4 abstract view
.subckt sky130_fd_sc_hd__nand3b_4 A_N B C VGND VNB VPB VPWR Y
.ends

* Black-box entry subcircuit for sky130_fd_sc_hd__buf_6 abstract view
.subckt sky130_fd_sc_hd__buf_6 A VGND VNB VPB VPWR X
.ends

* Black-box entry subcircuit for sky130_fd_sc_hd__mux2_2 abstract view
.subckt sky130_fd_sc_hd__mux2_2 A0 A1 S VGND VNB VPB VPWR X
.ends

* Black-box entry subcircuit for sky130_fd_sc_hd__a221o_4 abstract view
.subckt sky130_fd_sc_hd__a221o_4 A1 A2 B1 B2 C1 VGND VNB VPB VPWR X
.ends

* Black-box entry subcircuit for sky130_fd_sc_hd__a22o_4 abstract view
.subckt sky130_fd_sc_hd__a22o_4 A1 A2 B1 B2 VGND VNB VPB VPWR X
.ends

* Black-box entry subcircuit for sky130_fd_sc_hd__xor2_1 abstract view
.subckt sky130_fd_sc_hd__xor2_1 A B VGND VNB VPB VPWR X
.ends

* Black-box entry subcircuit for sky130_fd_sc_hd__a221oi_4 abstract view
.subckt sky130_fd_sc_hd__a221oi_4 A1 A2 B1 B2 C1 VGND VNB VPB VPWR Y
.ends

* Black-box entry subcircuit for sky130_fd_sc_hd__xor2_2 abstract view
.subckt sky130_fd_sc_hd__xor2_2 A B VGND VNB VPB VPWR X
.ends

* Black-box entry subcircuit for sky130_fd_sc_hd__a21oi_4 abstract view
.subckt sky130_fd_sc_hd__a21oi_4 A1 A2 B1 VGND VNB VPB VPWR Y
.ends

* Black-box entry subcircuit for sky130_fd_sc_hd__a211oi_4 abstract view
.subckt sky130_fd_sc_hd__a211oi_4 A1 A2 B1 C1 VGND VNB VPB VPWR Y
.ends

* Black-box entry subcircuit for sky130_fd_sc_hd__o41ai_1 abstract view
.subckt sky130_fd_sc_hd__o41ai_1 A1 A2 A3 A4 B1 VGND VNB VPB VPWR Y
.ends

* Black-box entry subcircuit for sky130_fd_sc_hd__a21boi_1 abstract view
.subckt sky130_fd_sc_hd__a21boi_1 A1 A2 B1_N VGND VNB VPB VPWR Y
.ends

* Black-box entry subcircuit for sky130_fd_sc_hd__a32o_2 abstract view
.subckt sky130_fd_sc_hd__a32o_2 A1 A2 A3 B1 B2 VGND VNB VPB VPWR X
.ends

* Black-box entry subcircuit for sky130_fd_sc_hd__or3_2 abstract view
.subckt sky130_fd_sc_hd__or3_2 A B C VGND VNB VPB VPWR X
.ends

* Black-box entry subcircuit for sky130_fd_sc_hd__a2111o_2 abstract view
.subckt sky130_fd_sc_hd__a2111o_2 A1 A2 B1 C1 D1 VGND VNB VPB VPWR X
.ends

* Black-box entry subcircuit for sky130_fd_sc_hd__and3b_2 abstract view
.subckt sky130_fd_sc_hd__and3b_2 A_N B C VGND VNB VPB VPWR X
.ends

* Black-box entry subcircuit for sky130_fd_sc_hd__o31a_4 abstract view
.subckt sky130_fd_sc_hd__o31a_4 A1 A2 A3 B1 VGND VNB VPB VPWR X
.ends

* Black-box entry subcircuit for sky130_fd_sc_hd__o31ai_2 abstract view
.subckt sky130_fd_sc_hd__o31ai_2 A1 A2 A3 B1 VGND VNB VPB VPWR Y
.ends

* Black-box entry subcircuit for sky130_fd_sc_hd__a211oi_1 abstract view
.subckt sky130_fd_sc_hd__a211oi_1 A1 A2 B1 C1 VGND VNB VPB VPWR Y
.ends

* Black-box entry subcircuit for sky130_fd_sc_hd__xnor2_2 abstract view
.subckt sky130_fd_sc_hd__xnor2_2 A B VGND VNB VPB VPWR Y
.ends

* Black-box entry subcircuit for sky130_fd_sc_hd__a21oi_2 abstract view
.subckt sky130_fd_sc_hd__a21oi_2 A1 A2 B1 VGND VNB VPB VPWR Y
.ends

* Black-box entry subcircuit for sky130_fd_sc_hd__a211o_4 abstract view
.subckt sky130_fd_sc_hd__a211o_4 A1 A2 B1 C1 VGND VNB VPB VPWR X
.ends

* Black-box entry subcircuit for sky130_fd_sc_hd__nand4_1 abstract view
.subckt sky130_fd_sc_hd__nand4_1 A B C D VGND VNB VPB VPWR Y
.ends

* Black-box entry subcircuit for sky130_fd_sc_hd__a2111o_1 abstract view
.subckt sky130_fd_sc_hd__a2111o_1 A1 A2 B1 C1 D1 VGND VNB VPB VPWR X
.ends

* Black-box entry subcircuit for sky130_fd_sc_hd__o311a_4 abstract view
.subckt sky130_fd_sc_hd__o311a_4 A1 A2 A3 B1 C1 VGND VNB VPB VPWR X
.ends

* Black-box entry subcircuit for sky130_fd_sc_hd__o211ai_1 abstract view
.subckt sky130_fd_sc_hd__o211ai_1 A1 A2 B1 C1 VGND VNB VPB VPWR Y
.ends

* Black-box entry subcircuit for sky130_fd_sc_hd__o21bai_1 abstract view
.subckt sky130_fd_sc_hd__o21bai_1 A1 A2 B1_N VGND VNB VPB VPWR Y
.ends

* Black-box entry subcircuit for sky130_fd_sc_hd__a22oi_1 abstract view
.subckt sky130_fd_sc_hd__a22oi_1 A1 A2 B1 B2 VGND VNB VPB VPWR Y
.ends

* Black-box entry subcircuit for sky130_fd_sc_hd__o41a_1 abstract view
.subckt sky130_fd_sc_hd__o41a_1 A1 A2 A3 A4 B1 VGND VNB VPB VPWR X
.ends

* Black-box entry subcircuit for sky130_fd_sc_hd__nor3_4 abstract view
.subckt sky130_fd_sc_hd__nor3_4 A B C VGND VNB VPB VPWR Y
.ends

* Black-box entry subcircuit for sky130_fd_sc_hd__a31oi_4 abstract view
.subckt sky130_fd_sc_hd__a31oi_4 A1 A2 A3 B1 VGND VNB VPB VPWR Y
.ends

.subckt simproc_system VGND VPWR addr_byte[0] addr_byte[1] addr_byte[2] addr_byte[3]
+ addr_byte[4] addr_byte[5] addr_byte[6] addr_byte[7] clk clk_per_bit[0] clk_per_bit[1]
+ clk_per_bit[2] clk_per_bit[3] clk_per_bit[4] clk_per_bit[5] clk_per_bit[6] clk_per_bit[7]
+ clk_per_bit[8] clk_per_bit[9] cmd_byte[0] cmd_byte[1] cmd_byte[2] cmd_byte[3] cmd_byte[4]
+ cmd_byte[5] cmd_byte[6] cmd_byte[7] data_byte[0] data_byte[1] data_byte[2] data_byte[3]
+ data_byte[4] data_byte[5] data_byte[6] data_byte[7] done halt rst tx_reg[0] tx_reg[1]
+ tx_reg[2] tx_reg[3] tx_reg[4] tx_reg[5] tx_reg[6] tx_reg[7] uart_rx uart_tx
X_3086_ _0961_ _1017_ VGND VGND VPWR VPWR _1027_ sky130_fd_sc_hd__nand2_1
XFILLER_0_49_303 VGND VGND VPWR VPWR sky130_fd_sc_hd__fill_1
X_3155_ CPU1.PC1.pc_out\[7\] _0941_ _1091_ _1092_ VGND VGND VPWR VPWR _0145_ sky130_fd_sc_hd__o211a_1
X_2939_ _0826_ _0833_ _0888_ _0889_ net93 VGND VGND VPWR VPWR _0132_ sky130_fd_sc_hd__a32o_1
XFILLER_0_76_133 VGND VGND VPWR VPWR sky130_fd_sc_hd__decap_6
XFILLER_0_76_111 VGND VGND VPWR VPWR sky130_fd_sc_hd__fill_1
X_3988_ _2004_ _1688_ _1694_ UART1.UART_RX1.index\[2\] VGND VGND VPWR VPWR _1745_
+ sky130_fd_sc_hd__or4bb_1
XFILLER_0_7_81 VGND VGND VPWR VPWR sky130_fd_sc_hd__fill_1
XFILLER_0_48_15 VGND VGND VPWR VPWR sky130_ef_sc_hd__decap_12
XFILLER_0_64_58 VGND VGND VPWR VPWR sky130_ef_sc_hd__decap_12
XFILLER_0_58_100 VGND VGND VPWR VPWR sky130_fd_sc_hd__fill_1
X_3842_ RAM1.mem\[7\]\[3\] _0389_ _1630_ VGND VGND VPWR VPWR _1639_ sky130_fd_sc_hd__mux2_1
XFILLER_0_73_169 VGND VGND VPWR VPWR sky130_ef_sc_hd__decap_12
X_3911_ _1686_ _0416_ _1672_ VGND VGND VPWR VPWR _1687_ sky130_fd_sc_hd__mux2_1
XFILLER_0_46_317 VGND VGND VPWR VPWR sky130_fd_sc_hd__decap_3
X_3773_ _0452_ _1589_ _1575_ VGND VGND VPWR VPWR _1590_ sky130_fd_sc_hd__mux2_1
X_2724_ _1923_ _0716_ VGND VGND VPWR VPWR _0717_ sky130_fd_sc_hd__and2_1
X_2655_ RAM1.mem\[14\]\[2\] _0581_ _0587_ RAM1.mem\[15\]\[2\] _0589_ VGND VGND VPWR
+ VPWR _0650_ sky130_fd_sc_hd__a221o_1
X_4325_ clknet_leaf_6_clk _0113_ VGND VGND VPWR VPWR CPU1.RF1.rf\[1\]\[0\] sky130_fd_sc_hd__dfxtp_1
X_3207_ _0459_ VGND VGND VPWR VPWR _1135_ sky130_fd_sc_hd__clkbuf_4
X_2586_ _0496_ VGND VGND VPWR VPWR _0583_ sky130_fd_sc_hd__buf_4
X_4187_ UART1.UART_TX1.clkCount\[6\] VGND VGND VPWR VPWR _1898_ sky130_fd_sc_hd__inv_2
XFILLER_0_1_163 VGND VGND VPWR VPWR sky130_fd_sc_hd__decap_4
XFILLER_0_1_185 VGND VGND VPWR VPWR sky130_ef_sc_hd__decap_12
X_4256_ clknet_leaf_23_clk _0051_ VGND VGND VPWR VPWR RAM1.mem\[11\]\[5\] sky130_fd_sc_hd__dfxtp_1
X_3069_ _0906_ _0993_ _0915_ VGND VGND VPWR VPWR _1011_ sky130_fd_sc_hd__o21a_1
XFILLER_0_49_155 VGND VGND VPWR VPWR sky130_fd_sc_hd__decap_6
X_3138_ net150 _0941_ _1076_ _0569_ VGND VGND VPWR VPWR _0144_ sky130_fd_sc_hd__o211a_1
XFILLER_0_49_199 VGND VGND VPWR VPWR sky130_fd_sc_hd__decap_3
XFILLER_0_18_29 VGND VGND VPWR VPWR sky130_fd_sc_hd__fill_1
XFILLER_0_95_272 VGND VGND VPWR VPWR sky130_fd_sc_hd__decap_4
XFILLER_0_50_49 VGND VGND VPWR VPWR sky130_ef_sc_hd__decap_12
XFILLER_0_70_117 VGND VGND VPWR VPWR sky130_fd_sc_hd__fill_2
XFILLER_0_11_206 VGND VGND VPWR VPWR sky130_ef_sc_hd__decap_12
X_2440_ RAM1.mem\[10\]\[5\] _0479_ _0462_ VGND VGND VPWR VPWR _0480_ sky130_fd_sc_hd__mux2_1
X_2371_ _2067_ RAM1.mem\[0\]\[0\] _0423_ VGND VGND VPWR VPWR _0424_ sky130_fd_sc_hd__mux2_1
XFILLER_0_59_69 VGND VGND VPWR VPWR sky130_fd_sc_hd__fill_1
X_4041_ _1783_ VGND VGND VPWR VPWR _0340_ sky130_fd_sc_hd__clkbuf_1
X_4110_ _1836_ _0398_ _1828_ VGND VGND VPWR VPWR _1837_ sky130_fd_sc_hd__mux2_1
XFILLER_0_86_250 VGND VGND VPWR VPWR sky130_fd_sc_hd__fill_2
X_3756_ _1578_ VGND VGND VPWR VPWR _0260_ sky130_fd_sc_hd__clkbuf_1
X_3825_ _0449_ _1626_ _1614_ VGND VGND VPWR VPWR _1627_ sky130_fd_sc_hd__mux2_1
X_2638_ RAM1.mem\[0\]\[1\] RAM1.mem\[1\]\[1\] _0592_ VGND VGND VPWR VPWR _0634_ sky130_fd_sc_hd__mux2_1
X_3687_ _1534_ VGND VGND VPWR VPWR _0235_ sky130_fd_sc_hd__clkbuf_1
XFILLER_0_71_3 VGND VGND VPWR VPWR sky130_fd_sc_hd__fill_1
XFILLER_0_49_91 VGND VGND VPWR VPWR sky130_fd_sc_hd__decap_4
X_2707_ _0595_ _0699_ VGND VGND VPWR VPWR _0700_ sky130_fd_sc_hd__or2_1
XFILLER_0_40_82 VGND VGND VPWR VPWR sky130_fd_sc_hd__fill_2
X_2569_ net139 _1932_ _0567_ _0557_ VGND VGND VPWR VPWR _0084_ sky130_fd_sc_hd__o211a_1
X_4239_ clknet_leaf_12_clk _0034_ VGND VGND VPWR VPWR RAM1.mem\[0\]\[4\] sky130_fd_sc_hd__dfxtp_1
XFILLER_0_65_90 VGND VGND VPWR VPWR sky130_fd_sc_hd__fill_1
X_4308_ clknet_leaf_24_clk _0096_ VGND VGND VPWR VPWR UART1.UART_RX1.clkCount\[1\]
+ sky130_fd_sc_hd__dfxtp_2
XFILLER_0_37_125 VGND VGND VPWR VPWR sky130_fd_sc_hd__fill_1
XFILLER_0_92_253 VGND VGND VPWR VPWR sky130_fd_sc_hd__fill_2
XFILLER_0_52_139 VGND VGND VPWR VPWR sky130_fd_sc_hd__fill_1
XFILLER_0_37_169 VGND VGND VPWR VPWR sky130_ef_sc_hd__decap_12
XFILLER_0_60_194 VGND VGND VPWR VPWR sky130_fd_sc_hd__fill_2
X_3610_ _1480_ VGND VGND VPWR VPWR _0212_ sky130_fd_sc_hd__clkbuf_1
XFILLER_0_9_49 VGND VGND VPWR VPWR sky130_fd_sc_hd__fill_2
X_4590_ clknet_leaf_25_clk _0367_ VGND VGND VPWR VPWR UART1.UART_TX1.clkCount\[1\]
+ sky130_fd_sc_hd__dfxtp_1
X_3541_ _0408_ RAM1.mem\[20\]\[6\] _1417_ VGND VGND VPWR VPWR _1431_ sky130_fd_sc_hd__mux2_1
X_2423_ _2101_ VGND VGND VPWR VPWR _0467_ sky130_fd_sc_hd__clkbuf_8
X_3472_ _2102_ RAM1.mem\[9\]\[1\] _1378_ VGND VGND VPWR VPWR _1383_ sky130_fd_sc_hd__mux2_1
X_2285_ _2061_ CPU1.PC1.pc_out\[4\] net51 CPU1.reg_b_out\[4\] VGND VGND VPWR VPWR
+ _2070_ sky130_fd_sc_hd__a22oi_4
XFILLER_0_50_8 VGND VGND VPWR VPWR sky130_fd_sc_hd__decap_4
X_4024_ _1377_ _1770_ VGND VGND VPWR VPWR _1771_ sky130_fd_sc_hd__nand2_4
X_2354_ _0408_ RAM1.mem\[8\]\[6\] _2081_ VGND VGND VPWR VPWR _0409_ sky130_fd_sc_hd__mux2_1
XFILLER_0_19_125 VGND VGND VPWR VPWR sky130_fd_sc_hd__decap_6
X_3739_ _0446_ _1565_ _1555_ VGND VGND VPWR VPWR _1566_ sky130_fd_sc_hd__mux2_1
XFILLER_0_74_297 VGND VGND VPWR VPWR sky130_fd_sc_hd__fill_1
XFILLER_0_74_253 VGND VGND VPWR VPWR sky130_fd_sc_hd__decap_4
X_3808_ _1615_ VGND VGND VPWR VPWR _0275_ sky130_fd_sc_hd__clkbuf_1
XFILLER_0_34_139 VGND VGND VPWR VPWR sky130_fd_sc_hd__fill_1
XFILLER_0_34_117 VGND VGND VPWR VPWR sky130_fd_sc_hd__decap_3
XFILLER_0_42_194 VGND VGND VPWR VPWR sky130_fd_sc_hd__fill_2
XFILLER_0_42_183 VGND VGND VPWR VPWR sky130_fd_sc_hd__decap_4
XFILLER_0_25_139 VGND VGND VPWR VPWR sky130_fd_sc_hd__decap_4
XTAP_507 VGND VPWR sky130_fd_sc_hd__tapvpwrvgnd_1
XTAP_529 VGND VPWR sky130_fd_sc_hd__tapvpwrvgnd_1
XTAP_518 VGND VPWR sky130_fd_sc_hd__tapvpwrvgnd_1
X_2972_ CPU1.reg_a_out\[1\] _0902_ _0904_ CPU1.PC1.pc_out\[1\] VGND VGND VPWR VPWR
+ _0917_ sky130_fd_sc_hd__a22o_2
XFILLER_0_48_209 VGND VGND VPWR VPWR sky130_ef_sc_hd__decap_12
X_4573_ clknet_leaf_4_clk _0350_ VGND VGND VPWR VPWR CPU1.reg_b_out\[6\] sky130_fd_sc_hd__dfxtp_1
XFILLER_0_71_267 VGND VGND VPWR VPWR sky130_fd_sc_hd__decap_4
XFILLER_0_56_286 VGND VGND VPWR VPWR sky130_fd_sc_hd__decap_6
XFILLER_0_56_242 VGND VGND VPWR VPWR sky130_fd_sc_hd__decap_3
X_2406_ _0416_ VGND VGND VPWR VPWR _0452_ sky130_fd_sc_hd__buf_2
X_3386_ net95 _1113_ _1307_ _1308_ VGND VGND VPWR VPWR _0160_ sky130_fd_sc_hd__o211a_1
X_3455_ _2062_ _1278_ VGND VGND VPWR VPWR _1371_ sky130_fd_sc_hd__nand2_1
X_3524_ _1418_ _2088_ _1419_ VGND VGND VPWR VPWR _1420_ sky130_fd_sc_hd__mux2_1
X_2268_ _2055_ VGND VGND VPWR VPWR _2056_ sky130_fd_sc_hd__buf_2
X_4007_ _1759_ VGND VGND VPWR VPWR _0330_ sky130_fd_sc_hd__clkbuf_1
X_2199_ UART1.UART_RX1.clkCount\[4\] _1961_ _1993_ _1994_ _1995_ VGND VGND VPWR VPWR
+ _1996_ sky130_fd_sc_hd__o221a_1
X_2337_ _0394_ VGND VGND VPWR VPWR _0025_ sky130_fd_sc_hd__clkbuf_1
XFILLER_0_15_161 VGND VGND VPWR VPWR sky130_fd_sc_hd__decap_6
Xhold63 CPU1.RF1.rf\[1\]\[0\] VGND VGND VPWR VPWR net116 sky130_fd_sc_hd__dlygate4sd3_1
Xhold41 CPU1.RF1.rf\[0\]\[5\] VGND VGND VPWR VPWR net94 sky130_fd_sc_hd__dlygate4sd3_1
Xhold30 CPU1.RF1.rf\[3\]\[5\] VGND VGND VPWR VPWR net83 sky130_fd_sc_hd__dlygate4sd3_1
Xhold74 UART1.UART_TX1.packet\[5\] VGND VGND VPWR VPWR net127 sky130_fd_sc_hd__dlygate4sd3_1
XFILLER_0_30_197 VGND VGND VPWR VPWR sky130_fd_sc_hd__fill_1
Xhold52 UART1.UART_RX1.dataOut\[3\] VGND VGND VPWR VPWR net105 sky130_fd_sc_hd__dlygate4sd3_1
XFILLER_0_26_29 VGND VGND VPWR VPWR sky130_fd_sc_hd__fill_1
Xhold85 UART1.UART_TX1.packet\[8\] VGND VGND VPWR VPWR net138 sky130_fd_sc_hd__dlygate4sd3_1
Xhold96 UART1.UART_RX1.state\[2\] VGND VGND VPWR VPWR net149 sky130_fd_sc_hd__dlygate4sd3_1
XFILLER_0_53_289 VGND VGND VPWR VPWR sky130_fd_sc_hd__fill_1
XFILLER_0_53_223 VGND VGND VPWR VPWR sky130_fd_sc_hd__fill_1
XFILLER_0_38_253 VGND VGND VPWR VPWR sky130_fd_sc_hd__decap_6
XANTENNA_5 net23 VGND VGND VPWR VPWR sky130_fd_sc_hd__diode_2
XFILLER_0_67_47 VGND VGND VPWR VPWR sky130_fd_sc_hd__decap_3
XFILLER_0_67_25 VGND VGND VPWR VPWR sky130_fd_sc_hd__decap_6
X_3240_ RAM1.mem\[20\]\[1\] RAM1.mem\[21\]\[1\] _1119_ VGND VGND VPWR VPWR _1167_
+ sky130_fd_sc_hd__mux2_1
XTAP_304 VGND VPWR sky130_fd_sc_hd__tapvpwrvgnd_1
XTAP_315 VGND VPWR sky130_fd_sc_hd__tapvpwrvgnd_1
XTAP_326 VGND VPWR sky130_fd_sc_hd__tapvpwrvgnd_1
XTAP_337 VGND VPWR sky130_fd_sc_hd__tapvpwrvgnd_1
XTAP_348 VGND VPWR sky130_fd_sc_hd__tapvpwrvgnd_1
XFILLER_0_83_35 VGND VGND VPWR VPWR sky130_fd_sc_hd__decap_6
X_3171_ _1094_ _0988_ VGND VGND VPWR VPWR _1104_ sky130_fd_sc_hd__nand2_1
X_2122_ _1919_ _1929_ VGND VGND VPWR VPWR _1930_ sky130_fd_sc_hd__nand2_1
XTAP_359 VGND VPWR sky130_fd_sc_hd__tapvpwrvgnd_1
XFILLER_0_91_307 VGND VGND VPWR VPWR sky130_fd_sc_hd__decap_3
XFILLER_0_88_197 VGND VGND VPWR VPWR sky130_fd_sc_hd__decap_6
X_2955_ _0899_ VGND VGND VPWR VPWR _0900_ sky130_fd_sc_hd__buf_2
XFILLER_0_29_275 VGND VGND VPWR VPWR sky130_fd_sc_hd__decap_4
X_3507_ _0440_ _1407_ _1401_ VGND VGND VPWR VPWR _1408_ sky130_fd_sc_hd__mux2_1
X_2886_ _0846_ VGND VGND VPWR VPWR _0847_ sky130_fd_sc_hd__buf_2
X_4556_ clknet_leaf_3_clk _0333_ VGND VGND VPWR VPWR RAM1.mem\[14\]\[5\] sky130_fd_sc_hd__dfxtp_1
XFILLER_0_44_234 VGND VGND VPWR VPWR sky130_ef_sc_hd__decap_12
XFILLER_0_32_94 VGND VGND VPWR VPWR sky130_fd_sc_hd__decap_4
X_4487_ clknet_leaf_13_clk _0266_ VGND VGND VPWR VPWR RAM1.mem\[4\]\[7\] sky130_fd_sc_hd__dfxtp_1
X_3438_ RAM1.mem\[6\]\[7\] _0459_ _1114_ _1358_ VGND VGND VPWR VPWR _1359_ sky130_fd_sc_hd__o211a_1
X_3369_ RAM1.mem\[12\]\[5\] RAM1.mem\[13\]\[5\] _1118_ VGND VGND VPWR VPWR _1292_
+ sky130_fd_sc_hd__mux2_1
XFILLER_0_12_197 VGND VGND VPWR VPWR sky130_fd_sc_hd__decap_6
XFILLER_0_82_318 VGND VGND VPWR VPWR sky130_fd_sc_hd__fill_2
Xoutput42 net42 VGND VGND VPWR VPWR tx_reg[3] sky130_fd_sc_hd__clkbuf_4
Xoutput31 net31 VGND VGND VPWR VPWR data_byte[2] sky130_fd_sc_hd__clkbuf_4
Xoutput20 net20 VGND VGND VPWR VPWR addr_byte[7] sky130_fd_sc_hd__clkbuf_4
XPHY_170 VGND VGND VPWR VPWR sky130_fd_sc_hd__decap_3
XPHY_192 VGND VGND VPWR VPWR sky130_fd_sc_hd__decap_3
XPHY_181 VGND VGND VPWR VPWR sky130_fd_sc_hd__decap_3
X_2740_ _0580_ _0726_ _0727_ _0731_ _0426_ VGND VGND VPWR VPWR _0732_ sky130_fd_sc_hd__a311o_1
X_2671_ RAM1.mem\[20\]\[2\] RAM1.mem\[21\]\[2\] _0592_ VGND VGND VPWR VPWR _0666_
+ sky130_fd_sc_hd__mux2_1
X_4410_ clknet_leaf_16_clk _0189_ VGND VGND VPWR VPWR RAM1.mem\[20\]\[2\] sky130_fd_sc_hd__dfxtp_1
X_4341_ clknet_leaf_6_clk _0129_ VGND VGND VPWR VPWR CPU1.reg_a_out\[7\] sky130_fd_sc_hd__dfxtp_1
X_3223_ RAM1.mem\[1\]\[0\] _2075_ VGND VGND VPWR VPWR _1151_ sky130_fd_sc_hd__or2_1
X_4272_ clknet_leaf_2_clk _0063_ VGND VGND VPWR VPWR net22 sky130_fd_sc_hd__dfxtp_4
X_3085_ _0901_ _1024_ _1025_ _0956_ VGND VGND VPWR VPWR _1026_ sky130_fd_sc_hd__o211a_1
X_3154_ _2063_ VGND VGND VPWR VPWR _1092_ sky130_fd_sc_hd__clkbuf_4
X_2938_ _0826_ _0832_ _0888_ _0889_ net77 VGND VGND VPWR VPWR _0131_ sky130_fd_sc_hd__a32o_1
XFILLER_0_64_307 VGND VGND VPWR VPWR sky130_fd_sc_hd__fill_1
XFILLER_0_32_215 VGND VGND VPWR VPWR sky130_fd_sc_hd__fill_2
X_3987_ net115 _1720_ _1744_ _1308_ VGND VGND VPWR VPWR _0325_ sky130_fd_sc_hd__o211a_1
XFILLER_0_17_223 VGND VGND VPWR VPWR sky130_fd_sc_hd__fill_1
XFILLER_0_17_278 VGND VGND VPWR VPWR sky130_fd_sc_hd__fill_2
X_2869_ CPU1.instr_reg_out\[6\] _2046_ VGND VGND VPWR VPWR _0839_ sky130_fd_sc_hd__nand2_1
XFILLER_0_32_259 VGND VGND VPWR VPWR sky130_fd_sc_hd__fill_1
XFILLER_0_32_248 VGND VGND VPWR VPWR sky130_fd_sc_hd__decap_4
XFILLER_0_7_93 VGND VGND VPWR VPWR sky130_ef_sc_hd__decap_12
X_4539_ clknet_leaf_26_clk _0316_ VGND VGND VPWR VPWR UART1.RX_dataOut\[4\] sky130_fd_sc_hd__dfxtp_1
XTAP_690 VGND VPWR sky130_fd_sc_hd__tapvpwrvgnd_1
XFILLER_0_67_178 VGND VGND VPWR VPWR sky130_fd_sc_hd__fill_2
XFILLER_0_67_145 VGND VGND VPWR VPWR sky130_fd_sc_hd__decap_4
XFILLER_0_23_259 VGND VGND VPWR VPWR sky130_fd_sc_hd__fill_2
XFILLER_0_48_27 VGND VGND VPWR VPWR sky130_fd_sc_hd__fill_1
X_3841_ _1638_ VGND VGND VPWR VPWR _0285_ sky130_fd_sc_hd__clkbuf_1
X_3772_ _0414_ RAM1.mem\[4\]\[7\] _1572_ VGND VGND VPWR VPWR _1589_ sky130_fd_sc_hd__mux2_1